Códigos Complementares/LoadsModificadas.txt
New	Load.LOAD1	Phases=1	Bus1=34.1	kV=0.24 	kW=4	PF=0.95 	Yearly=Shape_1
New	Load.LOAD2	Phases=1	Bus1=47.2	kV=0.24 	kW=3	PF=0.95 	Yearly=Shape_2
New	Load.LOAD3	Phases=3	Bus1=70.1.2.3	kV=0.24  	kW=7	PF=0.95 	Yearly=Shape_3
New	Load.LOAD4	Phases=3	Bus1=73.1.2.3	kV=0.24	            kW=7	PF=0.95 	Yearly=Shape_4
New	Load.LOAD5	Phases=1	Bus1=74.2	kV=0.24 	kW=3	PF=0.95 	Yearly=Shape_5
New	Load.LOAD6	Phases=3	Bus1=83.1.2.3	kV=0.24 	kW=5	PF=0.95 	Yearly=Shape_6
New	Load.LOAD7	Phases=1	Bus1=178.1	kV=0.24 	kW=2	PF=0.95	            Yearly=Shape_7
New	Load.LOAD8	Phases=1	Bus1=208.3	kV=0.24 	kW=4	PF=0.95 	Yearly=Shape_8
New	Load.LOAD9	Phases=1	Bus1=225.1	kV=0.24 	kW=2	PF=0.95 	Yearly=Shape_9
New	Load.LOAD10	Phases=1	Bus1=248.1	kV=0.24 	kW=2	PF=0.95 	Yearly=Shape_10
New	Load.LOAD11	Phases=1	Bus1=249.2	kV=0.24 	kW=4	PF=0.95 	Yearly=Shape_11
New	Load.LOAD12	Phases=3	Bus1=264.1.2.3  kV=0.24 	kW=5	PF=0.95 	Yearly=Shape_12	
New	Load.LOAD13	Phases=1	Bus1=276.3	kV=0.24 	kW=4	PF=0.95 	Yearly=Shape_13
New	Load.LOAD14	Phases=3	Bus1=289.1.2.3	kV=0.24 	kW=5	PF=0.95 	 Yearly=Shape_14
New	Load.LOAD15	Phases=1	Bus1=314.2	kV=0.24 	kW=4	PF=0.95 	 Yearly=Shape_15
New	Load.LOAD16	Phases=1	Bus1=320.2	kV=0.24 	kW=4	PF=0.95 	Yearly=Shape_16
New	Load.LOAD17	Phases=1	Bus1=327.1	kV=0.24 	kW=3	PF=0.95            Yearly=Shape_17	
New	Load.LOAD18	Phases=1	Bus1=337.3	kV=0.24 	kW=2	PF=0.95  	Yearly=Shape_18
New	Load.LOAD19	Phases=3	Bus1=342.1.2.3	kV=0.24 	kW=5	PF=0.95 	 Yearly=Shape_19
New	Load.LOAD20	Phases=3	Bus1=349.1.2.3	kV=0.24 	kW=5	PF=0.95 	 Yearly=Shape_20
New	Load.LOAD21	Phases=3	Bus1=387.1.2.3	kV=0.24 	kW=7	PF=0.95 	Yearly=Shape_21
New	Load.LOAD22	Phases=3	Bus1=388.1.2.3  kV=0.24 	kW=5	PF=0.95 	Yearly=Shape_22	
New	Load.LOAD23	Phases=1	Bus1=406.2	kV=0.24	            kW=3	PF=0.95 	 Yearly=Shape_23
New	Load.LOAD24	Phases=1	Bus1=458.3	kV=0.24 	kW=2	PF=0.95 	 Yearly=Shape_24
New	Load.LOAD25	Phases=3	Bus1=502.1.2.3	kV=0.24 	kW=7	PF=0.95 	Yearly=Shape_25
New	Load.LOAD26	Phases=1	Bus1=522.2	kV=0.24 	kW=3	PF=0.95 	Yearly=Shape_26
New	Load.LOAD27	Phases=3	Bus1=539.1.2.3	kV=0.24 	kW=5	PF=0.95 	Yearly=Shape_27
New	Load.LOAD28	Phases=1	Bus1=556.3	kV=0.24  	kW=2	PF=0.95 	 Yearly=Shape_28
New	Load.LOAD29	Phases=1	Bus1=562.1	kV=0.24 	kW=4	PF=0.95 	Yearly=Shape_29
New	Load.LOAD30	Phases=1	Bus1=563.3	kV=0.24 	kW=4	PF=0.95 	Yearly=Shape_30
New	Load.LOAD31	Phases=3	Bus1=611.1.2.3	kV=0.24	            kW=7	PF=0.95 	Yearly=Shape_31
New	Load.LOAD32	Phases=3	Bus1=614.1.2.3	kV=0.24 	kW=5	PF=0.95 	Yearly=Shape_32
New	Load.LOAD33	Phases=1	Bus1=619.3	kV=0.24 	kW=3	PF=0.95 	Yearly=Shape_33
New	Load.LOAD34	Phases=3	Bus1=629.1.2.3	kV=0.24 	kW=5	PF=0.95 	Yearly=Shape_34
New	Load.LOAD35	Phases=1	Bus1=639.2	kV=0.24	            kW=3	PF=0.95 	Yearly=Shape_35
New	Load.LOAD36	Phases=3	Bus1=676.1.2.3	kV=0.24 	kW=7	PF=0.95 	Yearly=Shape_36
New	Load.LOAD37	Phases=1	Bus1=682.1	kV=0.24 	kW=3	PF=0.95 	Yearly=Shape_37
New	Load.LOAD38	Phases=3	Bus1=688.1.2.3	kV=0.24 	kW=5	PF=0.95 	Yearly=Shape_38
New	Load.LOAD39	Phases=3	Bus1=701.1.2.3	kV=0.24 	kW=5	PF=0.95 	Yearly=Shape_39
New	Load.LOAD40	Phases=3	Bus1=702.1.2.3	kV=0.24 	kW=7	PF=0.95 	Yearly=Shape_40
New	Load.LOAD41	Phases=1	Bus1=755.2	kV=0.24 	kW=2	PF=0.95 	Yearly=Shape_41
New	Load.LOAD42	Phases=3	Bus1=778.1.2.3	kV=0.24 	kW=7	PF=0.95 	Yearly=Shape_42
New	Load.LOAD43	Phases=1	Bus1=780.3	kV=0.24	            kW=3	PF=0.95 	Yearly=Shape_43
New	Load.LOAD44	Phases=1	Bus1=785.2	kV=0.24 	kW=4	PF=0.95 	Yearly=Shape_44
New	Load.LOAD45	Phases=3	Bus1=813.1.2.3	kV=0.24 	kW=7	PF=0.95 	Yearly=Shape_45
New	Load.LOAD46	Phases=1	Bus1=817.1	kV=0.24 	kW=2	PF=0.95 	 Yearly=Shape_46
New	Load.LOAD47	Phases=1	Bus1=835.3	kV=0.24	            kW=3	PF=0.95 	Yearly=Shape_47
New	Load.LOAD48	Phases=1	Bus1=860.2	kV=0.24	            kW=2	PF=0.95 	Yearly=Shape_48
New	Load.LOAD49	Phases=1	Bus1=861.1	kV=0.24	            kW=2	PF=0.95 	Yearly=Shape_49
New	Load.LOAD50	Phases=3	Bus1=886.1.2.3	kV=0.24 	kW=7	PF=0.95 	Yearly=Shape_50
New	Load.LOAD51	Phases=1	Bus1=896.1	kV=0.24  	kW=4	PF=0.95 	Yearly=Shape_51
New	Load.LOAD52	Phases=1	Bus1=898.2	kV=0.24	            kW=2	PF=0.95 	Yearly=Shape_52
New	Load.LOAD53	Phases=1	Bus1=899.1	kV=0.24	            kW=4	PF=0.95 	 Yearly=Shape_53
New	Load.LOAD54	Phases=3	Bus1=900.1.2.3	kV=0.24	            kW=7	PF=0.95 	 Yearly=Shape_54
New	Load.LOAD55	Phases=1	Bus1=906.3	kV=0.24	            kW=3	PF=0.95 	 Yearly=Shape_55